          11
EGDN Beta Scission
 O    0.00000   0.00000   0.00000
 C    0.00000   0.00000   1.22745
 C    2.06399   0.00000   1.71761
 H   -0.16514  -0.93179   1.79642
 H   -0.15635   0.93075   1.80036
 O    2.21856   0.18590   3.05580
 H    2.35175   0.89622   1.18872
 H    2.33417  -0.96682   1.31894
 N    2.15304  -1.00873   3.85747
 O    2.25822  -0.76166   5.01008
 O    2.01188  -2.04079   3.28024

IncipientBond 2 3
